performance/linearized_pglib_scopf_baseline/pglib_opf_case24_ieee_rts.json
{"elements": {"bus": {"1": {"matpower_bustype": "PV", "area": 1.0, "vm": 1.0, "va": 7.663877137931126, "base_kv": 138.0, "zone": 1.0, "v_min": 0.95, "v_max": 1.05, "lmp": 49.875779999999985, "pl": 108.0}, "2": {"matpower_bustype": "PV", "area": 1.0, "vm": 1.0, "va": 7.7541960185166605, "base_kv": 138.0, "zone": 1.0, "v_min": 0.95, "v_max": 1.05, "lmp": 49.875779999999985, "pl": 97.0}, "3": {"matpower_bustype": "PQ", "area": 1.0, "vm": 1.0, "va": 7.019296222024598, "base_kv": 138.0, "zone": 1.0, "v_min": 0.95, "v_max": 1.05, "lmp": 49.875779999999985, "pl": 180.0}, "4": {"matpower_bustype": "PQ", "area": 1.0, "vm": 1.0, "va": 10.898408372673101, "base_kv": 138.0, "zone": 1.0, "v_min": 0.95, "v_max": 1.05, "lmp": 49.875779999999985, "pl": 74.0}, "5": {"matpower_bustype": "PQ", "area": 1.0, "vm": 1.0, "va": 11.052244683657609, "base_kv": 138.0, "zone": 1.0, "v_min": 0.95, "v_max": 1.05, "lmp": 49.875779999999985, "pl": 71.0}, "6": {"matpower_bustype": "PQ", "area": 2.0, "vm": 1.0, "va": 13.807743059102679, "base_kv": 138.0, "zone": 1.0, "v_min": 0.95, "v_max": 1.05, "lmp": 49.875779999999985, "pl": 136.0}, "7": {"matpower_bustype": "PV", "area": 2.0, "vm": 1.0, "va": 16.063983443058714, "base_kv": 138.0, "zone": 1.0, "v_min": 0.95, "v_max": 1.05, "lmp": 49.875779999999985, "pl": 125.0}, "8": {"matpower_bustype": "PQ", "area": 2.0, "vm": 1.0, "va": 16.94347365858453, "base_kv": 138.0, "zone": 1.0, "v_min": 0.95, "v_max": 1.05, "lmp": 49.875779999999985, "pl": 171.0}, "9": {"matpower_bustype": "PQ", "area": 1.0, "vm": 1.0, "va": 9.07508463229103, "base_kv": 138.0, "zone": 1.0, "v_min": 0.95, "v_max": 1.05, "lmp": 49.875779999999985, "pl": 175.0}, "10": {"matpower_bustype": "PQ", "area": 2.0, "vm": 1.0, "va": 11.000944216367586, "base_kv": 138.0, "zone": 1.0, "v_min": 0.95, "v_max": 1.05, "lmp": 49.875779999999985, "pl": 195.0}, "11": {"matpower_bustype": "PQ", "area": 3.0, "vm": 1.0, "va": 3.0442164599302792, "base_kv": 230.0, "zone": 1.0, "v_min": 0.95, "v_max": 1.05, "lmp": 49.875779999999985, "pl": 0.0}, "12": {"matpower_bustype": "PQ", "area": 3.0, "vm": 1.0, "va": 2.2960945589093, "base_kv": 230.0, "zone": 1.0, "v_min": 0.95, "v_max": 1.05, "lmp": 49.875779999999985, "pl": 0.0}, "13": {"matpower_bustype": "ref", "area": 3.0, "vm": 1.0, "va": -0.0, "base_kv": 230.0, "zone": 1.0, "v_min": 0.95, "v_max": 1.05, "lmp": 49.875779999999985, "pl": 265.0}, "14": {"matpower_bustype": "PV", "area": 3.0, "vm": 1.0, "va": -1.0860490248432606, "base_kv": 230.0, "zone": 1.0, "v_min": 0.95, "v_max": 1.05, "lmp": 49.875779999999985, "pl": 194.0}, "15": {"matpower_bustype": "PV", "area": 4.0, "vm": 1.0, "va": -10.057310771378624, "base_kv": 230.0, "zone": 1.0, "v_min": 0.95, "v_max": 1.05, "lmp": 49.875779999999985, "pl": 317.0}, "16": {"matpower_bustype": "PV", "area": 4.0, "vm": 1.0, "va": -9.253648287072524, "base_kv": 230.0, "zone": 1.0, "v_min": 0.95, "v_max": 1.05, "lmp": 49.875779999999985, "pl": 100.0}, "17": {"matpower_bustype": "PQ", "area": 4.0, "vm": 1.0, "va": -14.008902578125879, "base_kv": 230.0, "zone": 1.0, "v_min": 0.95, "v_max": 1.05, "lmp": 49.875779999999985, "pl": 0.0}, "18": {"matpower_bustype": "PV", "area": 4.0, "vm": 1.0, "va": -15.490527219618471, "base_kv": 230.0, "zone": 1.0, "v_min": 0.95, "v_max": 1.05, "lmp": 49.875779999999985, "pl": 333.0}, "19": {"matpower_bustype": "PQ", "area": 3.0, "vm": 1.0, "va": -8.061602400002164, "base_kv": 230.0, "zone": 1.0, "v_min": 0.95, "v_max": 1.05, "lmp": 49.875779999999985, "pl": 181.0}, "20": {"matpower_bustype": "PQ", "area": 3.0, "vm": 1.0, "va": -9.093214928703127, "base_kv": 230.0, "zone": 1.0, "v_min": 0.95, "v_max": 1.05, "lmp": 49.875779999999985, "pl": 128.0}, "21": {"matpower_bustype": "PV", "area": 4.0, "vm": 1.0, "va": -16.325833660015515, "base_kv": 230.0, "zone": 1.0, "v_min": 0.95, "v_max": 1.05, "lmp": 49.875779999999985, "pl": 0.0}, "22": {"matpower_bustype": "PV", "area": 4.0, "vm": 1.0, "va": -22.50766048944746, "base_kv": 230.0, "zone": 1.0, "v_min": 0.95, "v_max": 1.05, "lmp": 49.875779999999985, "pl": 0.0}, "23": {"matpower_bustype": "PV", "area": 3.0, "vm": 1.0, "va": -10.447969527619774, "base_kv": 230.0, "zone": 1.0, "v_min": 0.95, "v_max": 1.05, "lmp": 49.875779999999985, "pl": 0.0}, "24": {"matpower_bustype": "PQ", "area": 4.0, "vm": 1.0, "va": -3.6497404585636604, "base_kv": 230.0, "zone": 1.0, "v_min": 0.95, "v_max": 1.05, "lmp": 49.875779999999985, "pl": 0.0}}, "load": {"load_1": {"in_service": true, "p_load": 108.0, "q_load": 22.0, "bus": "1"}, "load_2": {"in_service": true, "p_load": 97.0, "q_load": 20.0, "bus": "2"}, "load_3": {"in_service": true, "p_load": 180.0, "q_load": 37.0, "bus": "3"}, "load_4": {"in_service": true, "p_load": 74.0, "q_load": 15.0, "bus": "4"}, "load_5": {"in_service": true, "p_load": 71.0, "q_load": 14.000000000000002, "bus": "5"}, "load_6": {"in_service": true, "p_load": 136.0, "q_load": 28.000000000000004, "bus": "6"}, "load_7": {"in_service": true, "p_load": 125.0, "q_load": 25.0, "bus": "7"}, "load_8": {"in_service": true, "p_load": 171.0, "q_load": 35.0, "bus": "8"}, "load_9": {"in_service": true, "p_load": 175.0, "q_load": 36.0, "bus": "9"}, "load_10": {"in_service": true, "p_load": 195.0, "q_load": 40.0, "bus": "10"}, "load_13": {"in_service": true, "p_load": 265.0, "q_load": 54.0, "bus": "13"}, "load_14": {"in_service": true, "p_load": 194.0, "q_load": 39.0, "bus": "14"}, "load_15": {"in_service": true, "p_load": 317.0, "q_load": 64.0, "bus": "15"}, "load_16": {"in_service": true, "p_load": 100.0, "q_load": 20.0, "bus": "16"}, "load_18": {"in_service": true, "p_load": 333.0, "q_load": 68.0, "bus": "18"}, "load_19": {"in_service": true, "p_load": 181.0, "q_load": 37.0, "bus": "19"}, "load_20": {"in_service": true, "p_load": 128.0, "q_load": 26.0, "bus": "20"}}, "shunt": {"shunt_6": {"shunt_type": "fixed", "bs": -100.0, "gs": 0.0, "bus": "6"}}, "generator": {"1": {"bus": "1", "pg": 16.0, "qg": 5.0, "vg": 1.0, "mbase": 100.0, "in_service": true, "p_min": 16.0, "p_max": 20.0, "q_min": 0.0, "q_max": 10.0, "generator_type": "thermal", "p_cost": {"data_type": "cost_curve", "cost_curve_type": "piecewise", "values": [[16.0, 2480.6849], [17.333333333333332, 2654.0182333333332], [18.666666666666668, 2827.351566666667], [20.0, 3000.6849]]}, "startup_cost": 1500.0, "shutdown_cost": 0.0}, "2": {"bus": "1", "pg": 16.0, "qg": 5.0, "vg": 1.0, "mbase": 100.0, "in_service": true, "p_min": 16.0, "p_max": 20.0, "q_min": 0.0, "q_max": 10.0, "generator_type": "thermal", "p_cost": {"data_type": "cost_curve", "cost_curve_type": "piecewise", "values": [[16.0, 2480.6849], [17.333333333333332, 2654.0182333333332], [18.666666666666668, 2827.351566666667], [20.0, 3000.6849]]}, "startup_cost": 1500.0, "shutdown_cost": 0.0}, "3": {"bus": "1", "pg": 76.0, "qg": 2.5, "vg": 1.0, "mbase": 100.0, "in_service": true, "p_min": 15.2, "p_max": 76.0, "q_min": -25.0, "q_max": 30.0, "generator_type": "thermal", "p_cost": {"data_type": "cost_curve", "cost_curve_type": "piecewise", "values": [[15.2, 460.00768768], [35.46666666666667, 800.4396151466667], [55.733333333333334, 1152.48884992], [76.0, 1516.155392]]}, "startup_cost": 1500.0, "shutdown_cost": 0.0}, "4": {"bus": "1", "pg": 76.0, "qg": 2.5, "vg": 1.0, "mbase": 100.0, "in_service": true, "p_min": 15.2, "p_max": 76.0, "q_min": -25.0, "q_max": 30.0, "generator_type": "thermal", "p_cost": {"data_type": "cost_curve", "cost_curve_type": "piecewise", "values": [[15.2, 460.00768768], [35.46666666666667, 800.4396151466667], [55.733333333333334, 1152.48884992], [76.0, 1516.155392]]}, "startup_cost": 1500.0, "shutdown_cost": 0.0}, "5": {"bus": "2", "pg": 16.0, "qg": 5.0, "vg": 1.0, "mbase": 100.0, "in_service": true, "p_min": 16.0, "p_max": 20.0, "q_min": 0.0, "q_max": 10.0, "generator_type": "thermal", "p_cost": {"data_type": "cost_curve", "cost_curve_type": "piecewise", "values": [[16.0, 2480.6849], [17.333333333333332, 2654.0182333333332], [18.666666666666668, 2827.351566666667], [20.0, 3000.6849]]}, "startup_cost": 1500.0, "shutdown_cost": 0.0}, "6": {"bus": "2", "pg": 16.0, "qg": 5.0, "vg": 1.0, "mbase": 100.0, "in_service": true, "p_min": 16.0, "p_max": 20.0, "q_min": 0.0, "q_max": 10.0, "generator_type": "thermal", "p_cost": {"data_type": "cost_curve", "cost_curve_type": "piecewise", "values": [[16.0, 2480.6849], [17.333333333333332, 2654.0182333333332], [18.666666666666668, 2827.351566666667], [20.0, 3000.6849]]}, "startup_cost": 1500.0, "shutdown_cost": 0.0}, "7": {"bus": "2", "pg": 76.0, "qg": 2.5, "vg": 1.0, "mbase": 100.0, "in_service": true, "p_min": 15.2, "p_max": 76.0, "q_min": -25.0, "q_max": 30.0, "generator_type": "thermal", "p_cost": {"data_type": "cost_curve", "cost_curve_type": "piecewise", "values": [[15.2, 460.00768768], [35.46666666666667, 800.4396151466667], [55.733333333333334, 1152.48884992], [76.0, 1516.155392]]}, "startup_cost": 1500.0, "shutdown_cost": 0.0}, "8": {"bus": "2", "pg": 76.0, "qg": 2.5, "vg": 1.0, "mbase": 100.0, "in_service": true, "p_min": 15.2, "p_max": 76.0, "q_min": -25.0, "q_max": 30.0, "generator_type": "thermal", "p_cost": {"data_type": "cost_curve", "cost_curve_type": "piecewise", "values": [[15.2, 460.00768768], [35.46666666666667, 800.4396151466667], [55.733333333333334, 1152.48884992], [76.0, 1516.155392]]}, "startup_cost": 1500.0, "shutdown_cost": 0.0}, "9": {"bus": "7", "pg": 50.0, "qg": 30.0, "vg": 1.0, "mbase": 100.0, "in_service": true, "p_min": 25.0, "p_max": 100.0, "q_min": 0.0, "q_max": 60.0, "generator_type": "thermal", "p_cost": {"data_type": "cost_curve", "cost_curve_type": "piecewise", "values": [[25.0, 1905.9785], [50.0, 3096.276], [75.0, 4352.4135], [100.0, 5674.391]]}, "startup_cost": 1500.0, "shutdown_cost": 0.0}, "10": {"bus": "7", "pg": 50.0, "qg": 30.0, "vg": 1.0, "mbase": 100.0, "in_service": true, "p_min": 25.0, "p_max": 100.0, "q_min": 0.0, "q_max": 60.0, "generator_type": "thermal", "p_cost": {"data_type": "cost_curve", "cost_curve_type": "piecewise", "values": [[25.0, 1905.9785], [50.0, 3096.276], [75.0, 4352.4135], [100.0, 5674.391]]}, "startup_cost": 1500.0, "shutdown_cost": 0.0}, "11": {"bus": "7", "pg": 50.0, "qg": 30.0, "vg": 1.0, "mbase": 100.0, "in_service": true, "p_min": 25.0, "p_max": 100.0, "q_min": 0.0, "q_max": 60.0, "generator_type": "thermal", "p_cost": {"data_type": "cost_curve", "cost_curve_type": "piecewise", "values": [[25.0, 1905.9785], [50.0, 3096.276], [75.0, 4352.4135], [100.0, 5674.391]]}, "startup_cost": 1500.0, "shutdown_cost": 0.0}, "12": {"bus": "13", "pg": 69.3333333333322, "qg": 40.0, "vg": 1.0, "mbase": 100.0, "in_service": true, "p_min": 69.0, "p_max": 197.0, "q_min": 0.0, "q_max": 80.0, "generator_type": "thermal", "p_cost": {"data_type": "cost_curve", "cost_curve_type": "piecewise", "values": [[69.0, 4218.94147], [111.66666666666664, 6346.9747499999985], [154.33333333333331, 8501.113203333332], [197.0, 10681.356829999999]]}, "startup_cost": 1500.0, "shutdown_cost": 0.0}, "13": {"bus": "13", "pg": 111.66666666666664, "qg": 40.0, "vg": 1.0, "mbase": 100.0, "in_service": true, "p_min": 69.0, "p_max": 197.0, "q_min": 0.0, "q_max": 80.0, "generator_type": "thermal", "p_cost": {"data_type": "cost_curve", "cost_curve_type": "piecewise", "values": [[69.0, 4218.94147], [111.66666666666664, 6346.9747499999985], [154.33333333333331, 8501.113203333332], [197.0, 10681.356829999999]]}, "startup_cost": 1500.0, "shutdown_cost": 0.0}, "14": {"bus": "13", "pg": 69.0, "qg": 40.0, "vg": 1.0, "mbase": 100.0, "in_service": true, "p_min": 69.0, "p_max": 197.0, "q_min": 0.0, "q_max": 80.0, "generator_type": "thermal", "p_cost": {"data_type": "cost_curve", "cost_curve_type": "piecewise", "values": [[69.0, 4218.94147], [111.66666666666664, 6346.9747499999985], [154.33333333333331, 8501.113203333332], [197.0, 10681.356829999999]]}, "startup_cost": 1500.0, "shutdown_cost": 0.0}, "15": {"bus": "14", "pg": 0.0, "qg": 75.0, "vg": 1.0, "mbase": 100.0, "in_service": true, "p_min": 0.0, "p_max": 0.0, "q_min": -50.0, "q_max": 200.0, "generator_type": "thermal", "p_cost": {"data_type": "cost_curve", "cost_curve_type": "piecewise", "values": [[0.0, 0.0]]}, "startup_cost": 1500.0, "shutdown_cost": 0.0}, "16": {"bus": "15", "pg": 2.4, "qg": 3.0, "vg": 1.0, "mbase": 100.0, "in_service": true, "p_min": 2.4, "p_max": 12.0, "q_min": 0.0, "q_max": 6.0, "generator_type": "thermal", "p_cost": {"data_type": "cost_curve", "cost_curve_type": "piecewise", "values": [[2.4, 224.03045312], [5.6, 413.44260032], [8.799999999999999, 609.5806252799999], [12.0, 812.444528]]}, "startup_cost": 1500.0, "shutdown_cost": 0.0}, "17": {"bus": "15", "pg": 2.4, "qg": 3.0, "vg": 1.0, "mbase": 100.0, "in_service": true, "p_min": 2.4, "p_max": 12.0, "q_min": 0.0, "q_max": 6.0, "generator_type": "thermal", "p_cost": {"data_type": "cost_curve", "cost_curve_type": "piecewise", "values": [[2.4, 224.03045312], [5.6, 413.44260032], [8.799999999999999, 609.5806252799999], [12.0, 812.444528]]}, "startup_cost": 1500.0, "shutdown_cost": 0.0}, "18": {"bus": "15", "pg": 2.4, "qg": 3.0, "vg": 1.0, "mbase": 100.0, "in_service": true, "p_min": 2.4, "p_max": 12.0, "q_min": 0.0, "q_max": 6.0, "generator_type": "thermal", "p_cost": {"data_type": "cost_curve", "cost_curve_type": "piecewise", "values": [[2.4, 224.03045312], [5.6, 413.44260032], [8.799999999999999, 609.5806252799999], [12.0, 812.444528]]}, "startup_cost": 1500.0, "shutdown_cost": 0.0}, "19": {"bus": "15", "pg": 2.4, "qg": 3.0, "vg": 1.0, "mbase": 100.0, "in_service": true, "p_min": 2.4, "p_max": 12.0, "q_min": 0.0, "q_max": 6.0, "generator_type": "thermal", "p_cost": {"data_type": "cost_curve", "cost_curve_type": "piecewise", "values": [[2.4, 224.03045312], [5.6, 413.44260032], [8.799999999999999, 609.5806252799999], [12.0, 812.444528]]}, "startup_cost": 1500.0, "shutdown_cost": 0.0}, "20": {"bus": "15", "pg": 2.4, "qg": 3.0, "vg": 1.0, "mbase": 100.0, "in_service": true, "p_min": 2.4, "p_max": 12.0, "q_min": 0.0, "q_max": 6.0, "generator_type": "thermal", "p_cost": {"data_type": "cost_curve", "cost_curve_type": "piecewise", "values": [[2.4, 224.03045312], [5.6, 413.44260032], [8.799999999999999, 609.5806252799999], [12.0, 812.444528]]}, "startup_cost": 1500.0, "shutdown_cost": 0.0}, "21": {"bus": "15", "pg": 155.0, "qg": 15.0, "vg": 1.0, "mbase": 100.0, "in_service": true, "p_min": 54.29999999999999, "p_max": 155.0, "q_min": -50.0, "q_max": 80.0, "generator_type": "thermal", "p_cost": {"data_type": "cost_curve", "cost_curve_type": "piecewise", "values": [[54.29999999999999, 1079.5200935799999], [87.86666666666667, 1535.1625640355555], [121.43333333333332, 2009.603249508889], [155.0, 2502.84215]]}, "startup_cost": 1500.0, "shutdown_cost": 0.0}, "22": {"bus": "16", "pg": 155.0, "qg": 15.0, "vg": 1.0, "mbase": 100.0, "in_service": true, "p_min": 54.29999999999999, "p_max": 155.0, "q_min": -50.0, "q_max": 80.0, "generator_type": "thermal", "p_cost": {"data_type": "cost_curve", "cost_curve_type": "piecewise", "values": [[54.29999999999999, 1079.5200935799999], [87.86666666666667, 1535.1625640355555], [121.43333333333332, 2009.603249508889], [155.0, 2502.84215]]}, "startup_cost": 1500.0, "shutdown_cost": 0.0}, "23": {"bus": "18", "pg": 400.0, "qg": 75.0, "vg": 1.0, "mbase": 100.0, "in_service": true, "p_min": 100.0, "p_max": 400.0, "q_min": -50.0, "q_max": 200.0, "generator_type": "thermal", "p_cost": {"data_type": "cost_curve", "cost_curve_type": "piecewise", "values": [[100.0, 839.8149000000001], [200.0, 1288.5149000000001], [300.0, 1741.4749], [400.0, 2198.6949]]}, "startup_cost": 1500.0, "shutdown_cost": 0.0}, "24": {"bus": "21", "pg": 400.0, "qg": 75.0, "vg": 1.0, "mbase": 100.0, "in_service": true, "p_min": 100.0, "p_max": 400.0, "q_min": -50.0, "q_max": 200.0, "generator_type": "thermal", "p_cost": {"data_type": "cost_curve", "cost_curve_type": "piecewise", "values": [[100.0, 839.8149000000001], [200.0, 1288.5149000000001], [300.0, 1741.4749], [400.0, 2198.6949]]}, "startup_cost": 1500.0, "shutdown_cost": 0.0}, "25": {"bus": "22", "pg": 50.0, "qg": 3.0, "vg": 1.0, "mbase": 100.0, "in_service": true, "p_min": 10.0, "p_max": 50.0, "q_min": -10.0, "q_max": 16.0, "generator_type": "thermal", "p_cost": {"data_type": "cost_curve", "cost_curve_type": "piecewise", "values": [[10.0, 0.011], [23.333333333333336, 0.02433333333333334], [36.66666666666667, 0.037666666666666675], [50.0, 0.051000000000000004]]}, "startup_cost": 1500.0, "shutdown_cost": 0.0}, "26": {"bus": "22", "pg": 50.0, "qg": 3.0, "vg": 1.0, "mbase": 100.0, "in_service": true, "p_min": 10.0, "p_max": 50.0, "q_min": -10.0, "q_max": 16.0, "generator_type": "thermal", "p_cost": {"data_type": "cost_curve", "cost_curve_type": "piecewise", "values": [[10.0, 0.011], [23.333333333333336, 0.02433333333333334], [36.66666666666667, 0.037666666666666675], [50.0, 0.051000000000000004]]}, "startup_cost": 1500.0, "shutdown_cost": 0.0}, "27": {"bus": "22", "pg": 50.0, "qg": 3.0, "vg": 1.0, "mbase": 100.0, "in_service": true, "p_min": 10.0, "p_max": 50.0, "q_min": -10.0, "q_max": 16.0, "generator_type": "thermal", "p_cost": {"data_type": "cost_curve", "cost_curve_type": "piecewise", "values": [[10.0, 0.011], [23.333333333333336, 0.02433333333333334], [36.66666666666667, 0.037666666666666675], [50.0, 0.051000000000000004]]}, "startup_cost": 1500.0, "shutdown_cost": 0.0}, "28": {"bus": "22", "pg": 50.0, "qg": 3.0, "vg": 1.0, "mbase": 100.0, "in_service": true, "p_min": 10.0, "p_max": 50.0, "q_min": -10.0, "q_max": 16.0, "generator_type": "thermal", "p_cost": {"data_type": "cost_curve", "cost_curve_type": "piecewise", "values": [[10.0, 0.011], [23.333333333333336, 0.02433333333333334], [36.66666666666667, 0.037666666666666675], [50.0, 0.051000000000000004]]}, "startup_cost": 1500.0, "shutdown_cost": 0.0}, "29": {"bus": "22", "pg": 50.0, "qg": 3.0, "vg": 1.0, "mbase": 100.0, "in_service": true, "p_min": 10.0, "p_max": 50.0, "q_min": -10.0, "q_max": 16.0, "generator_type": "thermal", "p_cost": {"data_type": "cost_curve", "cost_curve_type": "piecewise", "values": [[10.0, 0.011], [23.333333333333336, 0.02433333333333334], [36.66666666666667, 0.037666666666666675], [50.0, 0.051000000000000004]]}, "startup_cost": 1500.0, "shutdown_cost": 0.0}, "30": {"bus": "22", "pg": 50.0, "qg": 3.0, "vg": 1.0, "mbase": 100.0, "in_service": true, "p_min": 10.0, "p_max": 50.0, "q_min": -10.0, "q_max": 16.0, "generator_type": "thermal", "p_cost": {"data_type": "cost_curve", "cost_curve_type": "piecewise", "values": [[10.0, 0.011], [23.333333333333336, 0.02433333333333334], [36.66666666666667, 0.037666666666666675], [50.0, 0.051000000000000004]]}, "startup_cost": 1500.0, "shutdown_cost": 0.0}, "31": {"bus": "23", "pg": 155.0, "qg": 15.0, "vg": 1.0, "mbase": 100.0, "in_service": true, "p_min": 54.29999999999999, "p_max": 155.0, "q_min": -50.0, "q_max": 80.0, "generator_type": "thermal", "p_cost": {"data_type": "cost_curve", "cost_curve_type": "piecewise", "values": [[54.29999999999999, 1079.5200935799999], [87.86666666666667, 1535.1625640355555], [121.43333333333332, 2009.603249508889], [155.0, 2502.84215]]}, "startup_cost": 1500.0, "shutdown_cost": 0.0}, "32": {"bus": "23", "pg": 155.0, "qg": 15.0, "vg": 1.0, "mbase": 100.0, "in_service": true, "p_min": 54.29999999999999, "p_max": 155.0, "q_min": -50.0, "q_max": 80.0, "generator_type": "thermal", "p_cost": {"data_type": "cost_curve", "cost_curve_type": "piecewise", "values": [[54.29999999999999, 1079.5200935799999], [87.86666666666667, 1535.1625640355555], [121.43333333333332, 2009.603249508889], [155.0, 2502.84215]]}, "startup_cost": 1500.0, "shutdown_cost": 0.0}, "33": {"bus": "23", "pg": 350.0, "qg": 62.5, "vg": 1.0, "mbase": 100.0, "in_service": true, "p_min": 140.0, "p_max": 350.0, "q_min": -25.0, "q_max": 150.0, "generator_type": "thermal", "p_cost": {"data_type": "cost_curve", "cost_curve_type": "piecewise", "values": [[140.0, 2419.9814], [210.0, 3369.3739], [280.0, 4366.7374], [350.0, 5412.071900000001]]}, "startup_cost": 1500.0, "shutdown_cost": 0.0}}, "branch": {"1": {"from_bus": "1", "to_bus": "2", "resistance": 0.0026, "reactance": 0.0139, "charging_susceptance": 0.4611, "branch_type": "line", "rating_long_term": 175.0, "rating_short_term": 193.0, "rating_emergency": 200.0, "in_service": true, "angle_diff_min": -30.0, "angle_diff_max": 30.0, "pf": 11.340732682972376, "qf": null, "pt": null, "qt": null}, "2": {"from_bus": "1", "to_bus": "3", "resistance": 0.0546, "reactance": 0.2112, "charging_susceptance": 0.0572, "branch_type": "line", "rating_long_term": 175.0, "rating_short_term": 208.0, "rating_emergency": 220.00000000000003, "in_service": true, "angle_diff_min": -30.0, "angle_diff_max": 30.0, "pf": -5.326732612731828, "qf": null, "pt": null, "qt": null}, "3": {"from_bus": "1", "to_bus": "5", "resistance": 0.0218, "reactance": 0.0845, "charging_susceptance": 0.0229, "branch_type": "line", "rating_long_term": 175.0, "rating_short_term": 208.0, "rating_emergency": 220.00000000000003, "in_service": true, "angle_diff_min": -30.0, "angle_diff_max": 30.0, "pf": 69.98599992975933, "qf": null, "pt": null, "qt": null}, "4": {"from_bus": "2", "to_bus": "4", "resistance": 0.0328, "reactance": 0.1267, "charging_susceptance": 0.0343, "branch_type": "line", "rating_long_term": 175.0, "rating_short_term": 208.0, "rating_emergency": 220.00000000000003, "in_service": true, "angle_diff_min": -30.0, "angle_diff_max": 30.0, "pf": 43.312437223292726, "qf": null, "pt": null, "qt": null}, "5": {"from_bus": "2", "to_bus": "6", "resistance": 0.0497, "reactance": 0.192, "charging_susceptance": 0.052, "branch_type": "line", "rating_long_term": 175.0, "rating_short_term": 208.0, "rating_emergency": 220.00000000000003, "in_service": true, "angle_diff_min": -30.0, "angle_diff_max": 30.0, "pf": 55.028295459679576, "qf": null, "pt": null, "qt": null}, "6": {"from_bus": "3", "to_bus": "9", "resistance": 0.0308, "reactance": 0.119, "charging_susceptance": 0.0322, "branch_type": "line", "rating_long_term": 175.0, "rating_short_term": 208.0, "rating_emergency": 220.00000000000003, "in_service": true, "angle_diff_min": -30.0, "angle_diff_max": 30.0, "pf": 30.15149284326828, "qf": null, "pt": null, "qt": null}, "7": {"from_bus": "3", "to_bus": "24", "resistance": 0.0023, "reactance": 0.0839, "charging_susceptance": 0.0, "transformer_tap_ratio": 1.03, "transformer_phase_shift": 0.0, "branch_type": "transformer", "rating_long_term": 400.0, "rating_short_term": 509.99999999999994, "rating_emergency": 600.0, "in_service": true, "angle_diff_min": -30.0, "angle_diff_max": 30.0, "pf": -215.47822545600016, "qf": null, "pt": null, "qt": null}, "8": {"from_bus": "4", "to_bus": "9", "resistance": 0.0268, "reactance": 0.1037, "charging_susceptance": 0.0281, "branch_type": "line", "rating_long_term": 175.0, "rating_short_term": 208.0, "rating_emergency": 220.00000000000003, "in_service": true, "angle_diff_min": -30.0, "angle_diff_max": 30.0, "pf": -30.68756277670723, "qf": null, "pt": null, "qt": null}, "9": {"from_bus": "5", "to_bus": "10", "resistance": 0.0228, "reactance": 0.0883, "charging_susceptance": 0.0239, "branch_type": "line", "rating_long_term": 175.0, "rating_short_term": 208.0, "rating_emergency": 220.00000000000003, "in_service": true, "angle_diff_min": -30.0, "angle_diff_max": 30.0, "pf": -1.014000070240717, "qf": null, "pt": null, "qt": null}, "10": {"from_bus": "6", "to_bus": "10", "resistance": 0.0139, "reactance": 0.0605, "charging_susceptance": 2.459, "branch_type": "line", "rating_long_term": 175.0, "rating_short_term": 193.0, "rating_emergency": 200.0, "in_service": true, "angle_diff_min": -30.0, "angle_diff_max": 30.0, "pf": -80.97170454032046, "qf": null, "pt": null, "qt": null}, "11": {"from_bus": "7", "to_bus": "8", "resistance": 0.0159, "reactance": 0.0614, "charging_susceptance": 0.0166, "branch_type": "line", "rating_long_term": 175.0, "rating_short_term": 208.0, "rating_emergency": 220.00000000000003, "in_service": true, "angle_diff_min": -30.0, "angle_diff_max": 30.0, "pf": 25.00000000000004, "qf": null, "pt": null, "qt": null}, "12": {"from_bus": "8", "to_bus": "9", "resistance": 0.0427, "reactance": 0.1651, "charging_susceptance": 0.0447, "branch_type": "line", "rating_long_term": 175.0, "rating_short_term": 208.0, "rating_emergency": 220.00000000000003, "in_service": true, "angle_diff_min": -30.0, "angle_diff_max": 30.0, "pf": -83.17946416511946, "qf": null, "pt": null, "qt": null}, "13": {"from_bus": "8", "to_bus": "10", "resistance": 0.0427, "reactance": 0.1651, "charging_susceptance": 0.0447, "branch_type": "line", "rating_long_term": 175.0, "rating_short_term": 208.0, "rating_emergency": 220.00000000000003, "in_service": true, "angle_diff_min": -30.0, "angle_diff_max": 30.0, "pf": -62.820535834880545, "qf": null, "pt": null, "qt": null}, "14": {"from_bus": "9", "to_bus": "11", "resistance": 0.0023, "reactance": 0.0839, "charging_susceptance": 0.0, "transformer_tap_ratio": 1.03, "transformer_phase_shift": 0.0, "branch_type": "transformer", "rating_long_term": 400.0, "rating_short_term": 509.99999999999994, "rating_emergency": 600.0, "in_service": true, "angle_diff_min": -30.0, "angle_diff_max": 30.0, "pf": -121.80300908551327, "qf": null, "pt": null, "qt": null}, "15": {"from_bus": "9", "to_bus": "12", "resistance": 0.0023, "reactance": 0.0839, "charging_susceptance": 0.0, "transformer_tap_ratio": 1.03, "transformer_phase_shift": 0.0, "branch_type": "transformer", "rating_long_term": 400.0, "rating_short_term": 509.99999999999994, "rating_emergency": 600.0, "in_service": true, "angle_diff_min": -30.0, "angle_diff_max": 30.0, "pf": -136.91252501304513, "qf": null, "pt": null, "qt": null}, "16": {"from_bus": "10", "to_bus": "11", "resistance": 0.0023, "reactance": 0.0839, "charging_susceptance": 0.0, "transformer_tap_ratio": 1.02, "transformer_phase_shift": 0.0, "branch_type": "transformer", "rating_long_term": 400.0, "rating_short_term": 509.99999999999994, "rating_emergency": 600.0, "in_service": true, "angle_diff_min": -30.0, "angle_diff_max": 30.0, "pf": -162.2742960044082, "qf": null, "pt": null, "qt": null}, "17": {"from_bus": "10", "to_bus": "12", "resistance": 0.0023, "reactance": 0.0839, "charging_susceptance": 0.0, "transformer_tap_ratio": 1.02, "transformer_phase_shift": 0.0, "branch_type": "transformer", "rating_long_term": 400.0, "rating_short_term": 509.99999999999994, "rating_emergency": 600.0, "in_service": true, "angle_diff_min": -30.0, "angle_diff_max": 30.0, "pf": -177.53194444103352, "qf": null, "pt": null, "qt": null}, "18": {"from_bus": "11", "to_bus": "13", "resistance": 0.0061, "reactance": 0.0476, "charging_susceptance": 0.0999, "branch_type": "line", "rating_long_term": 500.0, "rating_short_term": 600.0, "rating_emergency": 625.0, "in_service": true, "angle_diff_min": -30.0, "angle_diff_max": 30.0, "pf": -111.62100917896933, "qf": null, "pt": null, "qt": null}, "19": {"from_bus": "11", "to_bus": "14", "resistance": 0.0054, "reactance": 0.0418, "charging_susceptance": 0.0879, "branch_type": "line", "rating_long_term": 500.0, "rating_short_term": 600.0, "rating_emergency": 625.0, "in_service": true, "angle_diff_min": -30.0, "angle_diff_max": 30.0, "pf": -172.45629591095215, "qf": null, "pt": null, "qt": null}, "20": {"from_bus": "12", "to_bus": "13", "resistance": 0.0061, "reactance": 0.0476, "charging_susceptance": 0.0999, "branch_type": "line", "rating_long_term": 500.0, "rating_short_term": 600.0, "rating_emergency": 625.0, "in_service": true, "angle_diff_min": -30.0, "angle_diff_max": 30.0, "pf": -84.18993695397938, "qf": null, "pt": null, "qt": null}, "21": {"from_bus": "12", "to_bus": "23", "resistance": 0.0124, "reactance": 0.0966, "charging_susceptance": 0.203, "branch_type": "line", "rating_long_term": 500.0, "rating_short_term": 600.0, "rating_emergency": 625.0, "in_service": true, "angle_diff_min": -30.0, "angle_diff_max": 30.0, "pf": -230.25453250009926, "qf": null, "pt": null, "qt": null}, "22": {"from_bus": "13", "to_bus": "23", "resistance": 0.0111, "reactance": 0.0865, "charging_susceptance": 0.1818, "branch_type": "line", "rating_long_term": 500.0, "rating_short_term": 600.0, "rating_emergency": 625.0, "in_service": true, "angle_diff_min": -30.0, "angle_diff_max": 30.0, "pf": -210.81094613294994, "qf": null, "pt": null, "qt": null}, "23": {"from_bus": "14", "to_bus": "16", "resistance": 0.005, "reactance": 0.0389, "charging_susceptance": 0.0818, "branch_type": "line", "rating_long_term": 500.0, "rating_short_term": 600.0, "rating_emergency": 625.0, "in_service": true, "angle_diff_min": -30.0, "angle_diff_max": 30.0, "pf": -366.4562959109522, "qf": null, "pt": null, "qt": null}, "24": {"from_bus": "15", "to_bus": "16", "resistance": 0.0022, "reactance": 0.0173, "charging_susceptance": 0.0364, "branch_type": "line", "rating_long_term": 500.0, "rating_short_term": 600.0, "rating_emergency": 625.0, "in_service": true, "angle_diff_min": -30.0, "angle_diff_max": 30.0, "pf": 81.07836084334531, "qf": null, "pt": null, "qt": null}, "25": {"from_bus": "15", "to_bus": "21", "resistance": 0.0063, "reactance": 0.049, "charging_susceptance": 0.103, "branch_type": "line", "rating_long_term": 500.0, "rating_short_term": 600.0, "rating_emergency": 625.0, "in_service": true, "angle_diff_min": -30.0, "angle_diff_max": 30.0, "pf": -223.27829314967263, "qf": null, "pt": null, "qt": null}, "26": {"from_bus": "15", "to_bus": "21", "resistance": 0.0063, "reactance": 0.049, "charging_susceptance": 0.103, "branch_type": "line", "rating_long_term": 500.0, "rating_short_term": 600.0, "rating_emergency": 625.0, "in_service": true, "angle_diff_min": -30.0, "angle_diff_max": 30.0, "pf": -223.27829314967263, "qf": null, "pt": null, "qt": null}, "27": {"from_bus": "15", "to_bus": "24", "resistance": 0.0067, "reactance": 0.0519, "charging_susceptance": 0.1091, "branch_type": "line", "rating_long_term": 500.0, "rating_short_term": 600.0, "rating_emergency": 625.0, "in_service": true, "angle_diff_min": -30.0, "angle_diff_max": 30.0, "pf": 215.47822545600025, "qf": null, "pt": null, "qt": null}, "28": {"from_bus": "16", "to_bus": "17", "resistance": 0.0033, "reactance": 0.0259, "charging_susceptance": 0.0545, "branch_type": "line", "rating_long_term": 500.0, "rating_short_term": 600.0, "rating_emergency": 625.0, "in_service": true, "angle_diff_min": -30.0, "angle_diff_max": 30.0, "pf": -320.4434137006555, "qf": null, "pt": null, "qt": null}, "29": {"from_bus": "16", "to_bus": "19", "resistance": 0.003, "reactance": 0.0231, "charging_susceptance": 0.0485, "branch_type": "line", "rating_long_term": 500.0, "rating_short_term": 600.0, "rating_emergency": 625.0, "in_service": true, "angle_diff_min": -30.0, "angle_diff_max": 30.0, "pf": 90.06547863304884, "qf": null, "pt": null, "qt": null}, "30": {"from_bus": "17", "to_bus": "18", "resistance": 0.0018, "reactance": 0.0144, "charging_susceptance": 0.0303, "branch_type": "line", "rating_long_term": 500.0, "rating_short_term": 600.0, "rating_emergency": 625.0, "in_service": true, "angle_diff_min": -30.0, "angle_diff_max": 30.0, "pf": -179.5779741161553, "qf": null, "pt": null, "qt": null}, "31": {"from_bus": "17", "to_bus": "22", "resistance": 0.0135, "reactance": 0.1053, "charging_susceptance": 0.2212, "branch_type": "line", "rating_long_term": 500.0, "rating_short_term": 600.0, "rating_emergency": 625.0, "in_service": true, "angle_diff_min": -30.0, "angle_diff_max": 30.0, "pf": -140.8654395844994, "qf": null, "pt": null, "qt": null}, "32": {"from_bus": "18", "to_bus": "21", "resistance": 0.0033, "reactance": 0.0259, "charging_susceptance": 0.0545, "branch_type": "line", "rating_long_term": 500.0, "rating_short_term": 600.0, "rating_emergency": 625.0, "in_service": true, "angle_diff_min": -30.0, "angle_diff_max": 30.0, "pf": -56.28898705807784, "qf": null, "pt": null, "qt": null}, "33": {"from_bus": "18", "to_bus": "21", "resistance": 0.0033, "reactance": 0.0259, "charging_susceptance": 0.0545, "branch_type": "line", "rating_long_term": 500.0, "rating_short_term": 600.0, "rating_emergency": 625.0, "in_service": true, "angle_diff_min": -30.0, "angle_diff_max": 30.0, "pf": -56.28898705807784, "qf": null, "pt": null, "qt": null}, "34": {"from_bus": "19", "to_bus": "20", "resistance": 0.0051, "reactance": 0.0396, "charging_susceptance": 0.0833, "branch_type": "line", "rating_long_term": 500.0, "rating_short_term": 600.0, "rating_emergency": 625.0, "in_service": true, "angle_diff_min": -30.0, "angle_diff_max": 30.0, "pf": -45.467260683475516, "qf": null, "pt": null, "qt": null}, "35": {"from_bus": "19", "to_bus": "20", "resistance": 0.0051, "reactance": 0.0396, "charging_susceptance": 0.0833, "branch_type": "line", "rating_long_term": 500.0, "rating_short_term": 600.0, "rating_emergency": 625.0, "in_service": true, "angle_diff_min": -30.0, "angle_diff_max": 30.0, "pf": -45.467260683475516, "qf": null, "pt": null, "qt": null}, "36": {"from_bus": "20", "to_bus": "23", "resistance": 0.0028, "reactance": 0.0216, "charging_susceptance": 0.0455, "branch_type": "line", "rating_long_term": 500.0, "rating_short_term": 600.0, "rating_emergency": 625.0, "in_service": true, "angle_diff_min": -30.0, "angle_diff_max": 30.0, "pf": -109.46726068347547, "qf": null, "pt": null, "qt": null}, "37": {"from_bus": "20", "to_bus": "23", "resistance": 0.0028, "reactance": 0.0216, "charging_susceptance": 0.0455, "branch_type": "line", "rating_long_term": 500.0, "rating_short_term": 600.0, "rating_emergency": 625.0, "in_service": true, "angle_diff_min": -30.0, "angle_diff_max": 30.0, "pf": -109.46726068347547, "qf": null, "pt": null, "qt": null}, "38": {"from_bus": "21", "to_bus": "22", "resistance": 0.0087, "reactance": 0.0678, "charging_susceptance": 0.1424, "branch_type": "line", "rating_long_term": 500.0, "rating_short_term": 600.0, "rating_emergency": 625.0, "in_service": true, "angle_diff_min": -30.0, "angle_diff_max": 30.0, "pf": -159.1345604155005, "qf": null, "pt": null, "qt": null}}, "contingency": {"1": {"branch_contingency": "1"}, "2": {"branch_contingency": "2"}, "3": {"branch_contingency": "3"}, "4": {"branch_contingency": "4"}, "5": {"branch_contingency": "5"}, "6": {"branch_contingency": "6"}, "7": {"branch_contingency": "7"}, "8": {"branch_contingency": "8"}, "9": {"branch_contingency": "9"}, "10": {"branch_contingency": "10"}, "12": {"branch_contingency": "12"}, "13": {"branch_contingency": "13"}, "14": {"branch_contingency": "14"}, "15": {"branch_contingency": "15"}, "16": {"branch_contingency": "16"}, "17": {"branch_contingency": "17"}, "18": {"branch_contingency": "18"}, "19": {"branch_contingency": "19"}, "20": {"branch_contingency": "20"}, "21": {"branch_contingency": "21"}, "22": {"branch_contingency": "22"}, "23": {"branch_contingency": "23"}, "24": {"branch_contingency": "24"}, "25": {"branch_contingency": "25"}, "26": {"branch_contingency": "26"}, "27": {"branch_contingency": "27"}, "28": {"branch_contingency": "28"}, "29": {"branch_contingency": "29"}, "30": {"branch_contingency": "30"}, "31": {"branch_contingency": "31"}, "32": {"branch_contingency": "32"}, "33": {"branch_contingency": "33"}, "34": {"branch_contingency": "34"}, "35": {"branch_contingency": "35"}, "36": {"branch_contingency": "36"}, "37": {"branch_contingency": "37"}, "38": {"branch_contingency": "38"}}}, "system": {"model_name": "pglib_opf_case24_ieee_rts", "mpc_version": "'2'", "baseMVA": 100.0, "reference_bus": "13", "reference_bus_angle": 0.0, "load_mismatch_cost": 1000000.0, "total_cost": 61018.960683599944, "p_balance_violation": 0.0}}